Circuit: * C:\Users\hamza\OneDrive\Documents\Term2 Github\Voltage-and-Current-Traveling-Waves-in-Transmission-Line-Equivalent-Circuits\schematic\exercise1.asc

tl1: using linear interpolation because trytocompact option specified
.OP point found by inspection.

Date: Thu Apr  6 12:00:56 2023
Total elapsed time: 0.661 seconds.

tnom = 27
temp = 27
method = modified trap
totiter = 20034
traniter = 20034
tranpoints = 10018
accept = 10018
rejected = 0
matrix size = 6
fillins = 0
solver = Normal
Avg thread counts: 1.0/1.1/1.1/1.0
Matrix Compiler1: off  [0.1]/0.3/0.5
Matrix Compiler2: off  [0.1]/0.4/0.4

